/*--------------------------------*- C++ -*----------------------------------*\
| =========                 |                                                 |
| \\      /  F ield         | OpenFOAM: The Open Source CFD Toolbox           |
|  \\    /   O peration     | Version:  2.2.0                                 |
|   \\  /    A nd           | Web:      www.OpenFOAM.org                      |
|    \\/     M anipulation  |                                                 |
\*---------------------------------------------------------------------------*/
FoamFile
{
    version     2.0;
    format      ascii;
    class       dictionary;
    object      controlDict;
}
// * * * * * * * * * * * * * * * * * * * * * * * * * * * * * * * * * * * * * //

#include "../../Setup/caseSetup"

libs
(
    "libOpenFOAM.so"
    "libincompressibleTurbulenceModel.so"
    "libincompressibleRASModels.so"
);

application     simpleFoam;

startFrom       latestTime;

startTime       $RANS_StartTime;

stopAt          endTime;

endTime         $RANS_EndTime;

deltaT          $RANS_DeltaT;

writeControl    adjustableRunTime;

writeInterval   $RANS_simWriteInterval;

purgeWrite      0;

writeFormat     binary;

writePrecision  6;

writeCompression uncompressed;

timeFormat      general;

timePrecision   6;

runTimeModifiable yes;

// ************************************************************************* //
