/*--------------------------------*- C++ -*----------------------------------*\
| =========                 |                                                 |
| \\      /  F ield         | OpenFOAM: The Open Source CFD Toolbox           |
|  \\    /   O peration     | Version:  2.2.0                                 |
|   \\  /    A nd           | Web:      www.OpenFOAM.org                      |
|    \\/     M anipulation  |                                                 |
\*---------------------------------------------------------------------------*/

FoamFile
{
    version     2.0;
    format      ascii;
    class       dictionary;
    location    "system";
    object      mapFieldsDirct;
}
// * * * * * * * * * * * * * * * * * * * * * * * * * * * * * * * * * * * * * //

patchMap
(
  //inlet			inlet
  //outlet		outlet
  //ground		ground
  //sides			sides
  //top			top
  //"(building_.*)"	"(building_.*)"   #Old way pre 2.3.x version
  //building		building
);

cuttingPatches
(
  
);

// ************************************************************************* //
